electric-grid/physical/synthetic/synAustinTD/models/syn-austin-D_only-v03/P5U/base/opendss/p5uhs6_1247/Master.dss
Clear

New Circuit.substation_p5uhs6_69 bus1=p5uhs6_69 pu=1.0 basekV=69.0 R1=1e-05 X1=1e-05 R0=1e-05 X0=1e-05

Redirect Transformers.dss
Redirect p5uhs6_1247--p5udt7214/Transformers.dss
Redirect p5uhs6_1247--p5udt8728/Transformers.dss
Redirect p5uhs6_1247--p5udt3745/Transformers.dss
Redirect Regulators.dss
Redirect p5uhs6_1247--p5udt7214/Loads.dss
Redirect p5uhs6_1247--p5udt8728/Loads.dss
Redirect p5uhs6_1247--p5udt3745/Loads.dss
Redirect LineCodes.dss
Redirect p5uhs6_1247--p5udt7214/LineCodes.dss
Redirect p5uhs6_1247--p5udt8728/LineCodes.dss
Redirect p5uhs6_1247--p5udt3745/LineCodes.dss
Redirect Lines.dss
Redirect p5uhs6_1247--p5udt7214/Lines.dss
Redirect p5uhs6_1247--p5udt8728/Lines.dss
Redirect p5uhs6_1247--p5udt3745/Lines.dss
Redirect p5uhs6_1247--p5udt7214/Capacitors.dss
Redirect p5uhs6_1247--p5udt8728/Capacitors.dss
Redirect p5uhs6_1247--p5udt3745/Capacitors.dss

Set Voltagebases=[0.2080002494301389, 0.48, 7.199560000000001, 12.47, 69.0]

Calcvoltagebases

Buscoords Buscoords.dss

Solve